20
	Energy:      -5.4704347
C         -6.55620        2.42124        0.00171
C         -5.31689        3.30171       -0.01873
H         -6.57605        1.75105       -0.86362
H         -7.45988        3.03811       -0.02548
H         -6.58865        1.81115        0.91003
C         -4.03653        2.46728        0.00739
H         -5.34064        3.97600        0.84526
H         -5.33491        3.92695       -0.91898
C         -2.79235        3.35695        0.00100
H         -4.01613        1.79959       -0.86262
H         -4.02908        1.83258        0.90188
C         -1.51191        2.52224        0.00557
H         -2.80653        4.01369        0.87944
H         -2.80608        4.00280       -0.88538
C         -0.27270        3.40306        0.01170
H         -1.48762        1.87380       -0.87803
H         -1.49431        1.87066        0.88689
H         -0.24616        4.04961       -0.87122
H          0.63110        2.78577        0.00810
H         -0.24712        4.03749        0.90346
