12
	Energy:      -1.6405225
C         -6.50853        0.44875        0.01172
C         -5.22536        1.25751        0.07333
H         -6.53165       -0.31149        0.79899
H         -6.60837       -0.05453       -0.95528
H         -7.37601        1.10257        0.14537
C         -3.99428        0.37849       -0.09457
H         -5.16698        1.79205        1.02897
H         -5.23653        2.03074       -0.70410
O         -2.81944        1.17467       -0.01834
H         -4.00136       -0.13849       -1.05956
H         -3.94261       -0.37497        0.69756
H         -2.86290        1.83011       -0.73538
